@<TRIPOS>MOLECULE
SOL
    3     2     1     0     0
SMALL
No Charge or Current Charge


@<TRIPOS>ATOM
      1 OW           1.6700    -0.3690     0.2120 OW         1 SOL      -0.834000 # PRM 8
      2 HW1          1.9200     0.3480    -0.4140 HW         1 SOL       0.417000 # PRM 8
      3 HW2          0.7380    -0.0720     0.2620 HW         1 SOL       0.417000 # RPT 8 COUL:SOL-2 /RPT
@<TRIPOS>BOND
     1     1     2 1   
     2     1     3 1   
@<TRIPOS>SUBSTRUCTURE
     1 SOL         1 TEMP              0 ****  ****    0 ROOT
